
  CDK     04252213472D

 44 49  0  0  0  0  0  0  0  0999 V2000
   -3.3936   -7.6378    0.0000 O   0  0  0  0  0  0  0  0  0  0  0  0
   -4.5636   -6.6991    0.0000 C   0  0  0  0  0  0  0  0  0  0  0  0
   -5.9615   -7.2431    0.0000 O   0  0  0  0  0  0  0  0  0  0  0  0
   -4.3358   -5.2165    0.0000 C   0  0  0  0  0  0  0  0  0  0  0  0
   -2.9379   -4.6726    0.0000 C   0  0  0  0  0  0  0  0  0  0  0  0
   -2.7100   -3.1900    0.0000 C   0  0  0  0  0  0  0  0  0  0  0  0
   -1.3900   -2.5100    0.0000 C   0  0  0  0  0  0  0  0  0  0  0  0
   -1.6100   -1.0300    0.0000 N   0  0  0  0  0  0  0  0  0  0  0  0
   -3.0900   -0.7600    0.0000 C   0  0  0  0  0  0  0  0  0  0  0  0
   -3.8500    0.5300    0.0000 C   0  0  0  0  0  0  0  0  0  0  0  0
   -3.0900    1.8200    0.0000 C   0  0  0  0  0  0  0  0  0  0  0  0
   -1.6100    2.0800    0.0000 N   0  0  0  0  0  0  0  0  0  0  0  0
   -1.3900    3.5600    0.0000 C   0  0  0  0  0  0  0  0  0  0  0  0
   -0.1000    4.3200    0.0000 C   0  0  0  0  0  0  0  0  0  0  0  0
    1.2300    3.5600    0.0000 C   0  0  0  0  0  0  0  0  0  0  0  0
    1.4600    2.0800    0.0000 N   0  0  0  0  0  0  0  0  0  0  0  0
    2.9400    1.8200    0.0000 C   0  0  0  0  0  0  0  0  0  0  0  0
    3.7000    0.5300    0.0000 C   0  0  0  0  0  0  0  0  0  0  0  0
    2.9400   -0.7600    0.0000 C   0  0  0  0  0  0  0  0  0  0  0  0
    1.4600   -1.0300    0.0000 N   0  0  0  0  0  0  0  0  0  0  0  0
    1.2300   -2.5100    0.0000 C   0  0  0  0  0  0  0  0  0  0  0  0
    2.5600   -3.1900    0.0000 C   0  0  0  0  0  0  0  0  0  0  0  0
    2.1700   -4.7200    0.0000 C   0  0  0  0  0  0  0  0  0  0  0  0
    3.0904   -5.9044    0.0000 O   0  0  0  0  0  0  0  0  0  0  0  0
    0.2900   -4.7200    0.0000 C   0  0  0  0  0  0  0  0  0  0  0  0
   -0.6226   -5.9105    0.0000 C   0  0  0  0  0  0  0  0  0  0  0  0
   -2.1098   -5.7154    0.0000 O   0  0  0  0  0  0  0  0  0  0  0  0
   -0.0479   -7.2960    0.0000 O   0  0  0  0  0  0  0  0  0  0  0  0
   -0.9605   -8.4865    0.0000 C   0  0  0  0  0  0  0  0  0  0  0  0
   -0.1000   -3.2700    0.0000 C   0  0  0  0  0  0  0  0  0  0  0  0
    3.6600   -2.1300    0.0000 C   0  0  0  0  0  0  0  0  0  0  0  0
    5.1408   -2.3690    0.0000 C   0  0  0  0  0  0  0  0  0  0  0  0
    3.6600    3.1800    0.0000 C   0  0  0  0  0  0  0  0  0  0  0  0
    2.5600    4.2500    0.0000 C   0  0  0  0  0  0  0  0  0  0  0  0
    2.7790    5.7339    0.0000 C   0  0  0  0  0  0  0  0  0  0  0  0
    5.1417    3.4133    0.0000 C   0  0  0  0  0  0  0  0  0  0  0  0
    5.6806    4.8132    0.0000 C   0  0  0  0  0  0  0  0  0  0  0  0
   -2.7100    4.2500    0.0000 C   0  0  0  0  0  0  0  0  0  0  0  0
   -2.9369    5.7327    0.0000 C   0  0  0  0  0  0  0  0  0  0  0  0
   -4.3345    6.2776    0.0000 C   0  0  0  0  0  0  0  0  0  0  0  0
   -3.7800    3.1800    0.0000 C   0  0  0  0  0  0  0  0  0  0  0  0
   -5.2613    3.4159    0.0000 C   0  0  0  0  0  0  0  0  0  0  0  0
   -3.7800   -2.1300    0.0000 C   0  0  0  0  0  0  0  0  0  0  0  0
   -5.2604   -2.3716    0.0000 C   0  0  0  0  0  0  0  0  0  0  0  0
  1  2  2  0  0  0  0
  2  3  1  0  0  0  0
  2  4  1  4  0  0  0
  4  5  2  0  0  0  0
  5  6  1  0  0  0  0
  6  7  2  0  0  0  0
  7  8  1  0  0  0  0
  8  9  1  0  0  0  0
  9 10  1  0  0  0  0
 10 11  2  0  0  0  0
 11 12  1  0  0  0  0
 12 13  2  0  0  0  0
 13 14  1  0  0  0  0
 14 15  2  0  0  0  0
 15 16  1  0  0  0  0
 16 17  1  0  0  0  0
 17 18  2  0  0  0  0
 18 19  1  0  0  0  0
 19 20  2  0  0  0  0
 20 21  1  0  0  0  0
 21 22  1  0  0  0  0
 22 23  1  0  0  0  0
 23 24  2  0  0  0  0
 23 25  1  0  0  0  0
 25 26  1  0  0  0  0
 26 27  2  0  0  0  0
 26 28  1  0  0  0  0
 28 29  1  0  0  0  0
 25 30  1  0  0  0  0
 21 30  2  0  0  0  0
  7 30  1  0  0  0  0
 22 31  2  0  0  0  0
 19 31  1  0  0  0  0
 31 32  1  0  0  0  0
 17 33  1  0  0  0  0
 33 34  2  0  0  0  0
 15 34  1  0  0  0  0
 34 35  1  0  0  0  0
 33 36  1  0  0  0  0
 36 37  1  0  0  0  0
 13 38  1  0  0  0  0
 38 39  1  0  0  0  0
 39 40  2  0  0  0  0
 38 41  2  0  0  0  0
 11 41  1  0  0  0  0
 41 42  1  0  0  0  0
  9 43  2  0  0  0  0
  6 43  1  0  0  0  0
 43 44  1  0  0  0  0
M  END
> <coconut_id>
CNP0478795

> <inchi>
InChI=1S/C35H32N4O5/c1-8-19-15(3)22-12-24-17(5)21(10-11-28(40)41)32(38-24)30-31(35(43)44-7)34(42)29-18(6)25(39-33(29)30)14-27-20(9-2)16(4)23(37-27)13-26(19)36-22/h8,10-14,31,37-38H,1,9H2,2-7H3,(H,40,41)

> <inchikey>
ZZYWWIZEKKWNHL-UHFFFAOYSA-N

> <SMILES>
O=C(O)C=CC1=C2NC(C=C3N=C(C=C4NC(=CC5=NC=6C(C(=O)C(C(=O)OC)C62)=C5C)C(=C4C)CC)C(C=C)=C3C)=C1C

> <sugar_free_smiles>
O=C(O)C=CC1=C2NC(C=C3N=C(C=C4NC(=CC5=NC=6C(C(=O)C(C(=O)OC)C62)=C5C)C(=C4C)CC)C(C=C)=C3C)=C1C

> <molecular_formula>
C35H32N4O5

> <molecular_weight>
588.6536979759961

> <citationDOI>
[]

> <textTaxa>
[notax]

> <name>


> <synonyms>
[]

> <NPL_score>
0.3691151184774421

> <number_of_carbons>
35

> <number_of_nitrogens>
4

> <number_of_oxygens>
5

> <number_of_rings>


> <total_atom_number>
76

> <bond_count>
49

> <found_in_databases>
[supernatural2]

> <murko_framework>
n1c2C=Cc1cc3ccc([nH]3)c4c5nc(cc6ccc(c2)[nH]6)C=C5CC4

> <alogp>
2.921399999999999

> <apol>
91.34737600000001

> <topoPSA>
129.45

