
  CDK     04252213472D

 12 13  0  0  0  0  0  0  0  0999 V2000
   -2.6000    0.7500    0.0000 C   0  0  0  0  0  3  0  0  0  0  0  0
   -2.6000   -0.7500    0.0000 C   0  0  0  0  0  3  0  0  0  0  0  0
   -1.3000   -1.5000    0.0000 C   0  0  0  0  0  3  0  0  0  0  0  0
   -0.0000   -0.7500    0.0000 C   0  0  0  0  0  3  0  0  0  0  0  0
   -0.0000    0.7500    0.0000 C   0  0  0  0  0  3  0  0  0  0  0  0
   -1.3000    1.5000    0.0000 C   0  0  0  0  0  3  0  0  0  0  0  0
    1.3000    1.5000    0.0000 C   0  0  0  0  0  3  0  0  0  0  0  0
    2.6000    0.7500    0.0000 C   0  0  0  0  0  3  0  0  0  0  0  0
    2.6000   -0.7500    0.0000 C   0  0  0  0  0  3  0  0  0  0  0  0
    3.8989   -1.5002    0.0000 C   0  0  0  0  0  0  0  0  0  0  0  0
    1.3000   -1.5000    0.0000 N   0  3  0  0  0  0  0  0  0  0  0  0
    1.3000   -3.0000    0.0000 C   0  0  0  0  0  0  0  0  0  0  0  0
  1  2  1  0  0  0  0
  2  3  1  0  0  0  0
  3  4  1  0  0  0  0
  4  5  1  0  0  0  0
  5  6  1  0  0  0  0
  1  6  1  0  0  0  0
  5  7  1  0  0  0  0
  7  8  1  0  0  0  0
  8  9  1  0  0  0  0
  9 10  1  0  0  0  0
  9 11  1  0  0  0  0
  4 11  1  0  0  0  0
 11 12  1  0  0  0  0
M  CHG  1  11   1
M  END
> <coconut_id>
CNP0478790

> <inchi>
InChI=1S/C11H13N/c1-9-7-8-10-5-3-4-6-11(10)12(9)2/h3-8,12H,1-2H3/q+1

> <inchikey>
ZZXQUOGAYVRCJL-UHFFFAOYSA-N

> <SMILES>
[CH]1[CH][CH][C]2[C]([CH]1)[CH][CH][C](C)[NH+]2C

> <sugar_free_smiles>
[CH]1[CH][CH][C]2[C]([CH]1)[CH][CH][C](C)[NH+]2C

> <molecular_formula>
[C11H13N]+

> <molecular_weight>
159.22802787143928

> <citationDOI>
[]

> <textTaxa>
[notax]

> <name>


> <synonyms>
[]

> <NPL_score>
2.2630950328465564

> <number_of_carbons>
11

> <number_of_nitrogens>
1

> <number_of_oxygens>
0

> <number_of_rings>


> <total_atom_number>
25

> <bond_count>
13

> <found_in_databases>
[supernatural2]

> <murko_framework>
N1CCCC2CCCCC12

> <alogp>
-1.0057

> <apol>
29.128309

> <topoPSA>
4.44

