
  CDK     04252213472D

 19 21  0  0  0  0  0  0  0  0999 V2000
    5.1989    1.5002    0.0000 O   0  0  0  0  0  0  0  0  0  0  0  0
    3.9000    0.7500    0.0000 C   0  0  0  0  0  3  0  0  0  0  0  0
    3.9000   -0.7500    0.0000 C   0  0  0  0  0  3  0  0  0  0  0  0
    2.6000   -1.5000    0.0000 C   0  0  0  0  0  3  0  0  0  0  0  0
    1.3000   -0.7500    0.0000 C   0  0  0  0  0  3  0  0  0  0  0  0
    1.3000    0.7500    0.0000 C   0  0  0  0  0  3  0  0  0  0  0  0
    2.6000    1.5000    0.0000 C   0  0  0  0  0  3  0  0  0  0  0  0
    0.0000    1.5000    0.0000 C   0  0  0  0  0  3  0  0  0  0  0  0
    0.0000    3.0000    0.0000 N   0  0  0  0  0  0  0  0  0  0  0  0
   -1.3000    0.7500    0.0000 C   0  0  0  0  0  3  0  0  0  0  0  0
   -2.6000    1.5000    0.0000 C   0  0  0  0  0  3  0  0  0  0  0  0
   -3.9000    0.7500    0.0000 C   0  0  0  0  0  3  0  0  0  0  0  0
   -3.9000   -0.7500    0.0000 C   0  0  0  0  0  3  0  0  0  0  0  0
   -5.1989   -1.5002    0.0000 N   0  0  0  0  0  0  0  0  0  0  0  0
   -2.6000   -1.5000    0.0000 C   0  0  0  0  0  3  0  0  0  0  0  0
   -1.3000   -0.7500    0.0000 C   0  0  0  0  0  3  0  0  0  0  0  0
    0.0000   -1.5000    0.0000 N   0  3  0  0  0  0  0  0  0  0  0  0
    6.4981    0.7504    0.0000 C   0  0  0  0  0  0  0  0  0  0  0  0
    7.7970    1.5006    0.0000 C   0  0  0  0  0  0  0  0  0  0  0  0
  1  2  1  0  0  0  0
  2  3  1  0  0  0  0
  3  4  1  0  0  0  0
  4  5  1  0  0  0  0
  5  6  1  0  0  0  0
  6  7  1  0  0  0  0
  2  7  1  0  0  0  0
  6  8  1  0  0  0  0
  8  9  1  0  0  0  0
  8 10  1  0  0  0  0
 10 11  1  0  0  0  0
 11 12  1  0  0  0  0
 12 13  1  0  0  0  0
 13 14  1  0  0  0  0
 13 15  1  0  0  0  0
 15 16  1  0  0  0  0
 10 16  1  0  0  0  0
 16 17  1  0  0  0  0
  5 17  1  0  0  0  0
  1 18  1  0  0  0  0
 18 19  1  0  0  0  0
M  CHG  1  17   1
M  END
> <coconut_id>
CNP0478791

> <inchi>
InChI=1S/C15H17N3O/c1-2-19-10-4-6-13-12(8-10)15(17)11-5-3-9(16)7-14(11)18-13/h3-8H,2,16-18H2,1H3/q+1

> <inchikey>
ZZXXJBVFTOJYAV-UHFFFAOYSA-N

> <SMILES>
O([C]1[CH][CH][C]2[C]([CH]1)[C](N)[C]3[CH][CH][C](N)[CH][C]3[NH2+]2)CC

> <sugar_free_smiles>
O([C]1[CH][CH][C]2[C]([CH]1)[C](N)[C]3[CH][CH][C](N)[CH][C]3[NH2+]2)CC

> <molecular_formula>
[C15H17N3O]+

> <molecular_weight>
255.31554581553578

> <citationDOI>
[]

> <textTaxa>
[notax]

> <name>


> <synonyms>
[]

> <NPL_score>
1.7198659392970095

> <number_of_carbons>
15

> <number_of_nitrogens>
3

> <number_of_oxygens>
1

> <number_of_rings>


> <total_atom_number>
36

> <bond_count>
21

> <found_in_databases>
[supernatural2]

> <murko_framework>
N1C2CCCCC2CC3CCCCC13

> <alogp>
-2.8539000000000003

> <apol>
41.837481

> <topoPSA>
77.88

